LTspice 24.0.12 for Windows
Circuit: * C:\Users\munta\OneDrive\Desktop\New file\Transmitter first lab.asc
Start Time: Sun Mar 15 16:54:59 2026
solver = Normal
Maximum thread count: 16
tnom = 27
temp = 27
method = modified trap
WARNING: Specified period is not longer than the sum of Trise, Tfall, and Ton for vin.  Increasing period to 1.00005
Direct Newton iteration for .op point succeeded.
Total elapsed time: 0.212 seconds.

