LTspice 26.0.1 for Windows
Circuit: C:\TEMP\EE310_Group9_Water-Level-Sensor\Phase2_Transmitter\555 timer implementations.net
Start Time: Thu Apr 30 14:47:27 2026
solver = Normal
Maximum thread count: 24
tnom = 27
temp = 27
method = trap
Direct Newton iteration succeeded in finding operating point.
Total elapsed time: 0.890 seconds.

Files loaded:
C:\TEMP\EE310_Group9_Water-Level-Sensor\Phase2_Transmitter\555 timer implementations.net
C:\Users\esto675\AppData\Local\LTspice\lib\cmp\standard.dio
C:\Users\esto675\AppData\Local\LTspice\lib\cmp\standard.mos
C:\TEMP\EE310_Group9_Water-Level-Sensor\Phase2_Transmitter\TLC081.mod
C:\TEMP\EE310_Group9_Water-Level-Sensor\Phase2_Transmitter\LM324.lib
C:\TEMP\EE310_Group9_Water-Level-Sensor\Phase2_Transmitter\LM358.mod
C:\TEMP\EE310_Group9_Water-Level-Sensor\Phase2_Transmitter\LM393A.txt
C:\TEMP\EE310_Group9_Water-Level-Sensor\Phase2_Transmitter\irlz44n.txt
C:\Users\esto675\AppData\Local\LTspice\lib\sub\NE555.sub

