LTspice 24.0.12 for Windows
Circuit: * C:\Users\munta\OneDrive\Desktop\EE310_Group9_Water-Level-Sensor\Phase2_Transmitter\555 timer implementations.asc
Start Time: Mon Mar 23 11:26:21 2026
Warning: Multiple definitions of model "2scr375p" Type: BJT
Warning: Multiple definitions of model "bc857b" Type: BJT
Warning: Multiple definitions of model "bc847c" Type: BJT
Warning: Multiple definitions of model "bc847b" Type: BJT
solver = Normal
Maximum thread count: 16
tnom = 27
temp = 27
method = modified trap
WARNING: Less than two connections to node offset.  This node is used by v3.
Direct Newton iteration for .op point succeeded.
Total elapsed time: 0.135 seconds.

