LTspice 26.0.1 for Windows
Circuit: C:\EE310_Group9_Water-Level-Sensor\Phase2_Transmitter\LED driver draft.net
Start Time: Tue Mar 17 14:14:13 2026
solver = Normal
Maximum thread count: 16
tnom = 27
temp = 27
method = trap
Direct Newton iteration succeeded in finding operating point.
Total elapsed time: 0.108 seconds.

Files loaded:
C:\EE310_Group9_Water-Level-Sensor\Phase2_Transmitter\LED driver draft.net
C:\Users\realh\AppData\Local\LTspice\lib\cmp\standard.dio
C:\Users\realh\AppData\Local\LTspice\lib\cmp\standard.bjt

