LTspice 26.0.1 for Windows
Circuit: C:\EE310_Group9_Water-Level-Sensor\Phase2_Transmitter\LED driver draft.net
Start Time: Tue Mar 17 15:43:18 2026
solver = Normal
Maximum thread count: 16
tnom = 27
temp = 27
method = trap
Early termination of direct N-R iteration.
Direct Newton iteration failed to find operating point.
Starting Gmin stepping
Gmin stepping failed to find operating point. Use".option gminsteps=0" to skip all Gmin stepping.
Starting source stepping with srcstepmethod=0
Source stepping succeeded in finding the operating point.

Total elapsed time: 1.318 seconds.

Files loaded:
C:\EE310_Group9_Water-Level-Sensor\Phase2_Transmitter\LED driver draft.net
C:\Users\realh\AppData\Local\LTspice\lib\cmp\standard.dio
C:\Users\realh\AppData\Local\LTspice\lib\cmp\standard.bjt
C:\EE310_Group9_Water-Level-Sensor\Phase2_Transmitter\TLC081.mod
C:\EE310_Group9_Water-Level-Sensor\Phase2_Transmitter\LM324.lib
C:\EE310_Group9_Water-Level-Sensor\Phase2_Transmitter\LM358.mod
C:\EE310_Group9_Water-Level-Sensor\Phase2_Transmitter\LM393A.txt
C:\Users\realh\AppData\Local\LTspice\lib\sub\UniversalOpAmp2.lib

