LTspice 26.0.1 for Windows
Circuit: C:\TEMP\EE310_Group9_Water-Level-Sensor\Phase3_Receiver\555 timer based receiver.net
Start Time: Thu Apr 30 15:08:23 2026
solver = Normal
Maximum thread count: 24
tnom = 27
temp = 27
method = trap
C:\TEMP\EE310_Group9_Water-Level-Sensor\Phase3_Receiver\555 timer based receiver.net(5): WARNING: Ncycles must be a positive number, will be ignored (using default = infinity).

I1 5V Vdiode PULSE(0 9u 0 10n 10n 111u 333u 0)
^^^^^^^^^^^^^^^^^^^^^^^^^^^^^^^^^^^^^^^^^^^^^^
Early termination of direct N-R iteration.
Direct Newton iteration failed to find operating point.
Starting Gmin stepping
Gmin stepping failed to find operating point. Use".option gminsteps=0" to skip all Gmin stepping.
Starting source stepping with srcstepmethod=0
Source stepping succeeded in finding the operating point.

Total elapsed time: 1.565 seconds.

Files loaded:
C:\TEMP\EE310_Group9_Water-Level-Sensor\Phase3_Receiver\555 timer based receiver.net
C:\Users\esto675\AppData\Local\LTspice\lib\cmp\standard.dio
C:\TEMP\EE310_Group9_Water-Level-Sensor\Phase3_Receiver\LM324.lib
C:\Users\esto675\AppData\Local\LTspice\lib\sub\LTC.lib
C:\TEMP\EE310_Group9_Water-Level-Sensor\Phase3_Receiver\TLC081.mod
C:\Users\esto675\AppData\Local\LTspice\lib\sub\NE555.sub

