LTspice 26.0.1 for Windows
Circuit: C:\EE310_Group9_Water-Level-Sensor\Phase3_Receiver\Opamp based receiver.net
Start Time: Mon Apr 13 15:19:06 2026
solver = Normal
Maximum thread count: 16
tnom = 27
temp = 27
method = trap
C:\EE310_Group9_Water-Level-Sensor\Phase3_Receiver\Opamp based receiver.net(5): WARNING: Ncycles must be a positive number, will be ignored (using default = infinity).

I1 5V Vdiode PULSE(0 9u 0 10n 10n 11u 33u 0)
^^^^^^^^^^^^^^^^^^^^^^^^^^^^^^^^^^^^^^^^^^^^
Early termination of direct N-R iteration.
Direct Newton iteration failed to find operating point.
Starting Gmin stepping
Gmin stepping failed to find operating point. Use".option gminsteps=0" to skip all Gmin stepping.
Starting source stepping with srcstepmethod=0
Source stepping succeeded in finding the operating point.


Simulation stopped by user.
Total elapsed time: 15.079 seconds.

Files loaded:
C:\EE310_Group9_Water-Level-Sensor\Phase3_Receiver\Opamp based receiver.net
C:\Users\realh\AppData\Local\LTspice\lib\cmp\standard.dio
C:\EE310_Group9_Water-Level-Sensor\Phase3_Receiver\LM324.lib
C:\Users\realh\AppData\Local\LTspice\lib\sub\LTC.lib
C:\EE310_Group9_Water-Level-Sensor\Phase3_Receiver\TLC081.mod
C:\Users\realh\AppData\Local\LTspice\lib\sub\NE555.sub

