LTspice 26.0.1 for Windows
Circuit: C:\EE310_Group9_Water-Level-Sensor\Phase3_Receiver\Receiver part 1.net
Start Time: Tue Mar 24 15:47:27 2026
solver = Normal
Maximum thread count: 16
tnom = 27
temp = 27
method = trap
C:\EE310_Group9_Water-Level-Sensor\Phase3_Receiver\Receiver part 1.net(6): WARNING: Ncycles must be a positive number, will be ignored (using default = infinity).

I1 N003 0 PULSE(0 9u 0.00000000001 0.00000000001 0.00000000001 2.667u 13.33u 0)
^^^^^^^^^^^^^^^^^^^^^^^^^^^^^^^^^^^^^^^^^^^^^^^^^^^^^^^^^^^^^^^^^^^^^^^^^^^^^^^
C:\EE310_Group9_Water-Level-Sensor\Phase3_Receiver\Receiver part 1.net(40): WARNING: Ncycles must be a positive number, will be ignored (using default = infinity).

I2 N001 0 PULSE(0 100n 0.00000000001 0.00000000001 0.00000000001 2.667u 13.33u 0)
^^^^^^^^^^^^^^^^^^^^^^^^^^^^^^^^^^^^^^^^^^^^^^^^^^^^^^^^^^^^^^^^^^^^^^^^^^^^^^^^^
WARNING: Node 2.5v_test is floating.
WARNING: Node vin is floating.

Early termination of direct N-R iteration.
Direct Newton iteration failed to find operating point.
Starting Gmin stepping
Gmin stepping failed to find operating point. Use".option gminsteps=0" to skip all Gmin stepping.
Starting source stepping with srcstepmethod=0
Source stepping succeeded in finding the operating point.

Total elapsed time: 4.901 seconds.

Files loaded:
C:\EE310_Group9_Water-Level-Sensor\Phase3_Receiver\Receiver part 1.net
C:\Users\realh\AppData\Local\LTspice\lib\cmp\standard.dio
C:\EE310_Group9_Water-Level-Sensor\Phase3_Receiver\LM324.lib
C:\Users\realh\AppData\Local\LTspice\lib\sub\LTC.lib
C:\EE310_Group9_Water-Level-Sensor\Phase3_Receiver\TLC081.mod

