LTspice 26.0.1 for Windows
Circuit: C:\EE310_Group9_Water-Level-Sensor\LT SPICE MODELS\integrator\lab for transmitter.net
Start Time: Tue Mar 17 14:36:41 2026
solver = Normal
Maximum thread count: 16
tnom = 27
temp = 27
method = trap
Direct Newton iteration succeeded in finding operating point.
Total elapsed time: 0.247 seconds.

Files loaded:
C:\EE310_Group9_Water-Level-Sensor\LT SPICE MODELS\integrator\lab for transmitter.net
C:\EE310_Group9_Water-Level-Sensor\LT SPICE MODELS\integrator\LM324.lib
C:\Users\realh\AppData\Local\LTspice\lib\sub\UniversalOpAmp2.lib

